6

 O    -0.066999140000     0.000000000000     1.494354740000
 H     0.815734270000     0.000000000000     1.865866390000
 H     0.068855100000     0.000000000000     0.539142770000
 O     0.062547750000     0.000000000000    -1.422632080000
 H    -0.406965400000    -0.760178410000    -1.771744500000
 H    -0.406965400000     0.760178410000    -1.771744500000
